networks/opendss/CKT_473_00092.dss
! OpenDSS script generated from multiconductor network
Clear

New Circuit.mc_network basekv=12.0 pu=1.000000 angle=0.00 frequency=60.0 phases=3 Mvasc3=143993 Mvasc1=47997.6
~ bus1=-8888882129136.1.2.3

! Line codes
New LineCode.1000_CLP_3PH_12KV_3 nphases=3 units=km Rmatrix=[ 0.025619 | 0 0.025619 | 0 0 0.025619 ] Xmatrix=[ 0.038779 | 0 0.038779 | 0 0 0.038779 ] Cmatrix=[ 0 | 0 0 | 0 0 0 ]
New LineCode.2_CLP_1PH_12KV_1 nphases=1 units=km Rmatrix=[ 0.001358 ] Xmatrix=[ 0.000286 ] Cmatrix=[ 0 ]
New LineCode.1/0_CLP_1PH_12KV_1 nphases=1 units=km Rmatrix=[ 0.123981 ] Xmatrix=[ 0.037894 ] Cmatrix=[ 0 ]
New LineCode.4/0_ACSR_3PH_4/0_ACSR_N_12KV_4 nphases=4 units=km Rmatrix=[ 0.038353 | 0 0.038353 | 0 0 0.038353 | 0 0 0 0.038353 ] Xmatrix=[ 0.048824 | 0 0.048824 | 0 0 0.048824 | 0 0 0 0.048824 ] Cmatrix=[ 0 | 0 0 | 0 0 0 | 0 0 0 0 ]
New LineCode.1000_JCN_3PH_12KV_3 nphases=3 units=km Rmatrix=[ 0.002433 | 0 0.002433 | 0 0 0.002433 ] Xmatrix=[ 0.003683 | 0 0.003683 | 0 0 0.003683 ] Cmatrix=[ 0 | 0 0 | 0 0 0 ]
New LineCode.1/0_JCN_3PH_12KV_3 nphases=3 units=km Rmatrix=[ 0.069492 | 0 0.069492 | 0 0 0.069492 ] Xmatrix=[ 0.02124 | 0 0.02124 | 0 0 0.02124 ] Cmatrix=[ 0 | 0 0 | 0 0 0 ]
New LineCode.750_CLP_3PH_12KV_3 nphases=3 units=km Rmatrix=[ 0.01144 | 0 0.01144 | 0 0 0.01144 ] Xmatrix=[ 0.01405 | 0 0.01405 | 0 0 0.01405 ] Cmatrix=[ 0 | 0 0 | 0 0 0 ]
New LineCode.1/0_CLP_3PH_12KV_3 nphases=3 units=km Rmatrix=[ 0.001378 | 0 0.001378 | 0 0 0.001378 ] Xmatrix=[ 0.000421 | 0 0.000421 | 0 0 0.000421 ] Cmatrix=[ 0 | 0 0 | 0 0 0 ]
New LineCode.6_CU_3PH_12KV_3 nphases=3 units=km Rmatrix=[ 0.006825 | 0 0.006825 | 0 0 0.006825 ] Xmatrix=[ 0.002419 | 0 0.002419 | 0 0 0.002419 ] Cmatrix=[ 0 | 0 0 | 0 0 0 ]
New LineCode.1/0_JCN_2PH_12KV_2 nphases=2 units=km Rmatrix=[ 0.04572 | 0 0.04572 ] Xmatrix=[ 0.013974 | 0 0.013974 ] Cmatrix=[ 0 | 0 0 ]
New LineCode.2_CLP_3PH_12KV_3 nphases=3 units=km Rmatrix=[ 0.004153 | 0 0.004153 | 0 0 0.004153 ] Xmatrix=[ 0.000875 | 0 0.000875 | 0 0 0.000875 ] Cmatrix=[ 0 | 0 0 | 0 0 0 ]
New LineCode.2_JCN_3PH_12KV_3 nphases=3 units=km Rmatrix=[ 0.001973 | 0 0.001973 | 0 0 0.001973 ] Xmatrix=[ 0.000416 | 0 0.000416 | 0 0 0.000416 ] Cmatrix=[ 0 | 0 0 | 0 0 0 ]
New LineCode.750_JCN_3PH_12KV_3 nphases=3 units=km Rmatrix=[ 0.002763 | 0 0.002763 | 0 0 0.002763 ] Xmatrix=[ 0.003393 | 0 0.003393 | 0 0 0.003393 ] Cmatrix=[ 0 | 0 0 | 0 0 0 ]
New LineCode.4/0_AL_3PH_12KV_3 nphases=3 units=km Rmatrix=[ 1e-05 | 0 1e-05 | 0 0 1e-05 ] Xmatrix=[ 1e-05 | 0 1e-05 | 0 0 1e-05 ] Cmatrix=[ 0 | 0 0 | 0 0 0 ]
New LineCode.954_ACSR_3PH_954_ACSR_N_12KV_4 nphases=4 units=km Rmatrix=[ 1e-05 | 0 1e-05 | 0 0 1e-05 | 0 0 0 1e-05 ] Xmatrix=[ 1e-05 | 0 1e-05 | 0 0 1e-05 | 0 0 0 1e-05 ] Cmatrix=[ 0 | 0 0 | 0 0 0 | 0 0 0 0 ]
New LineCode.750_CLP_1PH_12KV_1 nphases=1 units=km Rmatrix=[ 0.048867 ] Xmatrix=[ 0.060014 ] Cmatrix=[ 0 ]
New LineCode.2_CLP_2PH_12KV_2 nphases=2 units=km Rmatrix=[ 0.105268 | 0 0.105268 ] Xmatrix=[ 0.022189 | 0 0.022189 ] Cmatrix=[ 0 | 0 0 ]
New LineCode.4/0_ACSR_3PH_12KV_3 nphases=3 units=km Rmatrix=[ 0.001524 | 0 0.001524 | 0 0 0.001524 ] Xmatrix=[ 0.002153 | 0 0.002153 | 0 0 0.002153 ] Cmatrix=[ 0 | 0 0 | 0 0 0 ]

! Lines
New Line.4042187E$00092 phases=3 Bus1=-8888882129136.1.2.3 Bus2=12336434.1.2.3 LineCode=1000_CLP_3PH_12KV_3 Length=0.302021 units=km
New Line.98351079$98351104 phases=1 Bus1=98351082.2 Bus2=98351107.2 LineCode=2_CLP_1PH_12KV_1 Length=0.01495 units=km
New Line.188280394$P5402754-1 phases=1 Bus1=188280397.2 Bus2=14933956.2 LineCode=1/0_CLP_1PH_12KV_1 Length=0.00073 units=km
New Line.197816743$P5348178-2 phases=1 Bus1=14966031.2 Bus2=197816746.2 LineCode=2_CLP_1PH_12KV_1 Length=0.000842 units=km
New Line.98351104$98350979 phases=1 Bus1=98351106.2 Bus2=98350981.2 LineCode=2_CLP_1PH_12KV_1 Length=0.105599 units=km
New Line.P5402653-1$P5402652-1 phases=1 Bus1=14967915.1 Bus2=14967987.1 LineCode=1/0_CLP_1PH_12KV_1 Length=0.224812 units=km
New Line.P5348179-1$197816743 phases=1 Bus1=197816745.2 Bus2=14965950.2 LineCode=2_CLP_1PH_12KV_1 Length=0.208463 units=km
New Line.ND134119063$PH181E phases=4 Bus1=222434325.0.1.2.3 Bus2=134119063.0.1.2.3 LineCode=4/0_ACSR_3PH_4/0_ACSR_N_12KV_4 Length=0.395902 units=km
New Line.ND222434450$PH811 phases=3 Bus1=222434450.1.2.3 Bus2=222433729.1.2.3 LineCode=1000_JCN_3PH_12KV_3 Length=0.129201 units=km
New Line.GS4006-3$ND222434450 phases=3 Bus1=222434450.1.2.3 Bus2=222433861.1.2.3 LineCode=1000_JCN_3PH_12KV_3 Length=0.028866 units=km
New Line.GS4005-5$ND222434417 phases=3 Bus1=222434191.1.2.3 Bus2=222434417.1.2.3 LineCode=1/0_JCN_3PH_12KV_3 Length=0.111157 units=km
New Line.ND12371462$J0865-3P phases=3 Bus1=12371462.1.2.3 Bus2=12345762.1.2.3 LineCode=750_CLP_3PH_12KV_3 Length=0.168102 units=km
New Line.ND12371462$P5431550-1 phases=3 Bus1=12371462.1.2.3 Bus2=12364617.1.2.3 LineCode=750_CLP_3PH_12KV_3 Length=0.114562 units=km
New Line.185445364$FC2063-1 phases=3 Bus1=185445367.1.2.3 Bus2=12364738.1.2.3 LineCode=1/0_CLP_3PH_12KV_3 Length=0.001949 units=km
New Line.ND134119063$4645185EPH phases=3 Bus1=134119063.1.2.3 Bus2=134118811.1.2.3 LineCode=6_CU_3PH_12KV_3 Length=0.069897 units=km
New Line.P5402792-1$190956095 phases=1 Bus1=12346092.1 Bus2=190956097.1 LineCode=2_CLP_1PH_12KV_1 Length=0.109489 units=km
New Line.ND222434417$P5578511-1 phases=3 Bus1=222434417.1.2.3 Bus2=222434041.1.2.3 LineCode=1/0_JCN_3PH_12KV_3 Length=0.060715 units=km
New Line.P5578508$ND222434417 phases=2 Bus1=222434417.2.3 Bus2=222434082.2.3 LineCode=1/0_JCN_2PH_12KV_2 Length=0.064753 units=km
New Line.GS4005-6$0224632 phases=3 Bus1=222434200.1.2.3 Bus2=223614618.1.2.3 LineCode=1/0_JCN_3PH_12KV_3 Length=0.085692 units=km
New Line.12366274$P5423679-1 phases=3 Bus1=12366277.1.2.3 Bus2=12345850.1.2.3 LineCode=1/0_CLP_3PH_12KV_3 Length=0.003375 units=km
New Line.P5345272-2$P5345271-1 phases=1 Bus1=12345948.3 Bus2=12346029.3 LineCode=2_CLP_1PH_12KV_1 Length=0.096908 units=km
New Line.GS1827-2$GS1716-4 phases=3 Bus1=218853955.1.2.3 Bus2=12347098.1.2.3 LineCode=750_CLP_3PH_12KV_3 Length=0.748075 units=km
New Line.12371268$P5423678-B phases=3 Bus1=153081935.1.2.3 Bus2=12371270.1.2.3 LineCode=750_CLP_3PH_12KV_3 Length=0.138352 units=km
New Line.ND12371494$GS1827-4 phases=3 Bus1=218853973.1.2.3 Bus2=12371494.1.2.3 LineCode=1/0_CLP_3PH_12KV_3 Length=0.280763 units=km
New Line.190956095$P5402793-2 phases=1 Bus1=190956098.1 Bus2=12346173.1 LineCode=2_CLP_1PH_12KV_1 Length=0.001589 units=km
New Line.P5385431-2$P5345276-2 phases=1 Bus1=12346652.2 Bus2=12346724.2 LineCode=2_CLP_1PH_12KV_1 Length=0.115439 units=km
New Line.BS1310-1$GS1827-1 phases=3 Bus1=218853946.1.2.3 Bus2=12355853.1.2.3 LineCode=1/0_CLP_3PH_12KV_3 Length=0.007694 units=km
New Line.185445376$FC2063-1 phases=3 Bus1=12364737.1.2.3 Bus2=185445379.1.2.3 LineCode=2_CLP_3PH_12KV_3 Length=0.001909 units=km
New Line.4645185EPH$206240859 phases=3 Bus1=134118812.1.2.3 Bus2=206240861.1.2.3 LineCode=2_JCN_3PH_12KV_3 Length=0.084373 units=km
New Line.ND12371494$ND88074423 phases=3 Bus1=12371494.1.2.3 Bus2=88074423.1.2.3 LineCode=1/0_CLP_3PH_12KV_3 Length=0.028633 units=km
New Line.183574904$P5497113-1 phases=1 Bus1=183574907.2 Bus2=12365808.2 LineCode=2_CLP_1PH_12KV_1 Length=0.001518 units=km
New Line.ND12372081$ND12371508 phases=3 Bus1=12372081.1.2.3 Bus2=12371508.1.2.3 LineCode=750_CLP_3PH_12KV_3 Length=0.273229 units=km
New Line.BS1126-1$ND12372053 phases=1 Bus1=12348815.1 Bus2=12372053.1 LineCode=1/0_CLP_1PH_12KV_1 Length=0.004261 units=km
New Line.183873020$PME2809-1 phases=1 Bus1=12354283.3 Bus2=183873023.3 LineCode=2_CLP_1PH_12KV_1 Length=0.000951 units=km
New Line.183873032$PME2809-3 phases=1 Bus1=12354274.2 Bus2=183873035.2 LineCode=2_CLP_1PH_12KV_1 Length=0.000742 units=km
New Line.B5315434-1$BS1329-1 phases=1 Bus1=12347607.1 Bus2=12347656.1 LineCode=1/0_CLP_1PH_12KV_1 Length=0.188097 units=km
New Line.BS1127-1$ND12371508 phases=1 Bus1=12371508.1 Bus2=12347994.1 LineCode=2_CLP_1PH_12KV_1 Length=0.164911 units=km
New Line.S5315426-2$BS1705-1 phases=1 Bus1=12348476.3 Bus2=12348535.3 LineCode=1/0_CLP_1PH_12KV_1 Length=0.024045 units=km
New Line.B5315433-1$ND12372053 phases=1 Bus1=12372053.1 Bus2=12348861.1 LineCode=1/0_CLP_1PH_12KV_1 Length=0.142966 units=km
New Line.B5315432-2$ND12372053 phases=1 Bus1=12372053.1 Bus2=12363356.1 LineCode=2_CLP_1PH_12KV_1 Length=0.037684 units=km
New Line.ND12371508$OS1112-2 phases=3 Bus1=12371508.1.2.3 Bus2=14920418.1.2.3 LineCode=1/0_CLP_3PH_12KV_3 Length=0.043807 units=km
New Line.ND88074423$J609A-3P phases=3 Bus1=88074423.1.2.3 Bus2=12363972.1.2.3 LineCode=1/0_CLP_3PH_12KV_3 Length=0.017881 units=km
New Line.12371268$P5423680 phases=3 Bus1=12371271.1.2.3 Bus2=12365976.1.2.3 LineCode=750_CLP_3PH_12KV_3 Length=0.004219 units=km
New Line.ND240510981$4360934E phases=3 Bus1=12365997.1.2.3 Bus2=240510981.1.2.3 LineCode=750_JCN_3PH_12KV_3 Length=0.062963 units=km
New Line.ND88074423$BS2232-1 phases=1 Bus1=88074423.1 Bus2=88074262.1 LineCode=2_CLP_1PH_12KV_1 Length=0.035341 units=km
New Line.J0865-2P$12366252 phases=3 Bus1=12345770.1.2.3 Bus2=12366254.1.2.3 LineCode=750_CLP_3PH_12KV_3 Length=0.023921 units=km
New Line.ND12371377$185445376 phases=3 Bus1=185445378.1.2.3 Bus2=12371377.1.2.3 LineCode=2_CLP_3PH_12KV_3 Length=0.00624 units=km
New Line.BS1310-1$ND12371900 phases=3 Bus1=12355852.1.2.3 Bus2=12371900.1.2.3 LineCode=1/0_CLP_3PH_12KV_3 Length=0.020969 units=km
New Line.206240859$P5574517-1 phases=3 Bus1=206240862.1.2.3 Bus2=134118843.1.2.3 LineCode=2_JCN_3PH_12KV_3 Length=0.001772 units=km
New Line.RCS1813-4$ND240510981 phases=3 Bus1=240510981.1.2.3 Bus2=18901576.1.2.3 LineCode=750_JCN_3PH_12KV_3 Length=0.024623 units=km
New Line.215525424$P5345272-1 phases=1 Bus1=12346020.3 Bus2=215525426.3 LineCode=2_CLP_1PH_12KV_1 Length=0.358008 units=km
New Line.P5442693$ND240510981 phases=3 Bus1=240510981.1.2.3 Bus2=240510966.1.2.3 LineCode=1/0_JCN_3PH_12KV_3 Length=0.00823 units=km
New Line.B5199263-1$ND12371900 phases=1 Bus1=12371900.2 Bus2=12355902.2 LineCode=1/0_CLP_1PH_12KV_1 Length=0.203476 units=km
New Line.J0865-1P$12371258 phases=3 Bus1=12345754.1.2.3 Bus2=12371260.1.2.3 LineCode=750_CLP_3PH_12KV_3 Length=0.14957 units=km
New Line.ND12371900$ND12371914 phases=1 Bus1=12371900.3 Bus2=12371914.3 LineCode=1/0_CLP_1PH_12KV_1 Length=0.070692 units=km
New Line.ND12371377$182691632 phases=1 Bus1=12371377.2 Bus2=182691634.2 LineCode=2_CLP_1PH_12KV_1 Length=0.09755 units=km
New Line.190956083$P5402793-1 phases=1 Bus1=12346164.1 Bus2=190956086.1 LineCode=2_CLP_1PH_12KV_1 Length=0.000603 units=km
New Line.ND12371377$197084283 phases=3 Bus1=12371377.1.2.3 Bus2=197084285.1.2.3 LineCode=2_CLP_3PH_12KV_3 Length=0.118856 units=km
New Line.ND88074509$BS2232-1 phases=1 Bus1=88074263.1 Bus2=88074509.1 LineCode=2_CLP_1PH_12KV_1 Length=0.248581 units=km
New Line.98350979$P5566022-2 phases=1 Bus1=98350982.2 Bus2=98350886.2 LineCode=2_CLP_1PH_12KV_1 Length=0.003645 units=km
New Line.P5566022-1$98351004 phases=1 Bus1=98350877.2 Bus2=98351007.2 LineCode=2_CLP_1PH_12KV_1 Length=0.003047 units=km
New Line.98351004$98350952 phases=1 Bus1=98351006.2 Bus2=98350954.2 LineCode=2_CLP_1PH_12KV_1 Length=0.084751 units=km
New Line.98350952$P5566021-2 phases=1 Bus1=98350955.2 Bus2=98350797.2 LineCode=2_CLP_1PH_12KV_1 Length=0.004009 units=km
New Line.88075261$P5565416-1 phases=1 Bus1=88075264.1 Bus2=88074695.1 LineCode=2_CLP_1PH_12KV_1 Length=0.003267 units=km
New Line.88074922$P5565418-1 phases=1 Bus1=88074925.1 Bus2=88074777.1 LineCode=2_CLP_1PH_12KV_1 Length=0.004786 units=km
New Line.B5186685-1$183873020 phases=1 Bus1=183873022.3 Bus2=12354384.3 LineCode=2_CLP_1PH_12KV_1 Length=0.142646 units=km
New Line.B5199438-2$183873032 phases=1 Bus1=183873034.2 Bus2=12354681.2 LineCode=2_CLP_1PH_12KV_1 Length=0.160067 units=km
New Line.BS1311-1$ND12372025 phases=1 Bus1=12347873.2 Bus2=12372025.2 LineCode=1/0_CLP_1PH_12KV_1 Length=0.019115 units=km
New Line.GS1055-2$GS1056-5 phases=3 Bus1=233229014.1.2.3 Bus2=235689684.1.2.3 LineCode=750_CLP_3PH_12KV_3 Length=0.36134 units=km
New Line.B5315444-1$ND12372025 phases=1 Bus1=12372025.2 Bus2=12347922.2 LineCode=1/0_CLP_1PH_12KV_1 Length=0.113013 units=km
New Line.B5186613-2$B5186612-1 phases=1 Bus1=12355154.3 Bus2=12355235.3 LineCode=2_CLP_1PH_12KV_1 Length=0.098909 units=km
New Line.B5331690-1$B5331689-1 phases=1 Bus1=12355636.3 Bus2=12355492.3 LineCode=2_CLP_1PH_12KV_1 Length=0.15567 units=km
New Line.P5344995-1$P5344994-2 phases=1 Bus1=12357857.1 Bus2=12357920.1 LineCode=2_CLP_1PH_12KV_1 Length=0.085902 units=km
New Line.P5344988-2$P5344987-1 phases=1 Bus1=12362588.2 Bus2=12362669.2 LineCode=2_CLP_1PH_12KV_1 Length=0.087093 units=km
New Line.B5315443-2$ND12372025 phases=1 Bus1=12372025.2 Bus2=12363604.2 LineCode=1/0_CLP_1PH_12KV_1 Length=0.106483 units=km
New Line.P5344996-2$ND12371337 phases=1 Bus1=12362885.1 Bus2=12371337.1 LineCode=2_CLP_1PH_12KV_1 Length=0.013593 units=km
New Line.BS1127-1$ND12371408 phases=1 Bus1=12347995.1 Bus2=12371408.1 LineCode=2_CLP_1PH_12KV_1 Length=0.011819 units=km
New Line.12366252$P5416864-1 phases=3 Bus1=12366255.1.2.3 Bus2=12345707.1.2.3 LineCode=750_CLP_3PH_12KV_3 Length=0.006219 units=km
New Line.B5199261-2$ND12371914 phases=1 Bus1=12371914.3 Bus2=12356055.3 LineCode=1/0_CLP_1PH_12KV_1 Length=0.080198 units=km
New Line.B5199265-2$ND12371914 phases=1 Bus1=12371914.3 Bus2=12356199.3 LineCode=1/0_CLP_1PH_12KV_1 Length=0.119752 units=km
New Line.215525424$215525412 phases=1 Bus1=215525427.3 Bus2=215525415.3 LineCode=2_CLP_1PH_12KV_1 Length=0.016955 units=km
New Line.ND88074509$88074897 phases=1 Bus1=88074509.1 Bus2=88074899.1 LineCode=2_CLP_1PH_12KV_1 Length=0.021664 units=km
New Line.ND88074509$88074947 phases=1 Bus1=88074509.1 Bus2=88074949.1 LineCode=2_CLP_1PH_12KV_1 Length=0.123956 units=km
New Line.ND14989725$PMS1137-1 phases=1 Bus1=14989725.1 Bus2=14934509.1 LineCode=1/0_CLP_1PH_12KV_1 Length=0.275488 units=km
New Line.ND14989725$PMS1170-1 phases=1 Bus1=14989725.1 Bus2=14947443.1 LineCode=2_CLP_1PH_12KV_1 Length=0.083728 units=km
New Line.ND14989179$209479156 phases=3 Bus1=14989179.1.2.3 Bus2=209479158.1.2.3 LineCode=2_CLP_3PH_12KV_3 Length=0.045889 units=km
New Line.PMS1405-1$P5402751-1 phases=1 Bus1=14933690.2 Bus2=14933740.2 LineCode=1/0_CLP_1PH_12KV_1 Length=0.079136 units=km
New Line.P5345000-2$ND12371907 phases=1 Bus1=12362525.2 Bus2=12371907.2 LineCode=1/0_CLP_1PH_12KV_1 Length=0.138633 units=km
New Line.183574916$P5497113-2 phases=1 Bus1=12365817.2 Bus2=183574919.2 LineCode=2_CLP_1PH_12KV_1 Length=0.001375 units=km
New Line.B5315435-1$B5315434-2 phases=1 Bus1=12347665.1 Bus2=12347728.1 LineCode=1/0_CLP_1PH_12KV_1 Length=0.175867 units=km
New Line.B5315445-2$ND12371408 phases=1 Bus1=12371408.1 Bus2=12348053.1 LineCode=2_CLP_1PH_12KV_1 Length=0.144078 units=km
New Line.B5315439-1$ND12371408 phases=1 Bus1=12371408.1 Bus2=12348188.1 LineCode=2_CLP_1PH_12KV_1 Length=0.092633 units=km
New Line.S5315426-1$B5315427-2 phases=1 Bus1=12348526.3 Bus2=12348607.3 LineCode=1/0_CLP_1PH_12KV_1 Length=0.145861 units=km
New Line.B5315432-1$P5348446-2 phases=1 Bus1=12363347.1 Bus2=12348942.1 LineCode=2_CLP_1PH_12KV_1 Length=0.157681 units=km
New Line.P5348441-2$ND12371907 phases=1 Bus1=12371907.2 Bus2=12358073.2 LineCode=1/0_CLP_1PH_12KV_1 Length=0.082554 units=km
New Line.P5385421-2$ND12371907 phases=1 Bus1=12371907.2 Bus2=12362453.2 LineCode=1/0_CLP_1PH_12KV_1 Length=0.050275 units=km
New Line.P5344997-2$ND12371337 phases=1 Bus1=12371337.1 Bus2=12363029.1 LineCode=2_CLP_1PH_12KV_1 Length=0.079741 units=km
New Line.ND12371337$197084219 phases=1 Bus1=12371337.1 Bus2=197084221.1 LineCode=2_CLP_1PH_12KV_1 Length=0.053839 units=km
New Line.P5565416-2$88075286 phases=1 Bus1=88074704.1 Bus2=88075289.1 LineCode=2_CLP_1PH_12KV_1 Length=0.004714 units=km
New Line.B5199439-2$B5199438-1 phases=1 Bus1=12354672.2 Bus2=12354753.2 LineCode=2_CLP_1PH_12KV_1 Length=0.143277 units=km
New Line.B5186688-2$B5186685-2 phases=1 Bus1=12354393.3 Bus2=12363676.3 LineCode=2_CLP_1PH_12KV_1 Length=0.264714 units=km
New Line.GS2943-2$OS1112-3 phases=3 Bus1=14920434.1.2.3 Bus2=14920239.1.2.3 LineCode=750_CLP_3PH_12KV_3 Length=0.137185 units=km
New Line.183574916$183407058 phases=1 Bus1=183574918.2 Bus2=183407060.2 LineCode=2_CLP_1PH_12KV_1 Length=0.125047 units=km
New Line.P5520015-1$ND12372032 phases=1 Bus1=12355298.3 Bus2=-77777712355298.3 LineCode=2_CLP_1PH_12KV_1 Length=0.095021 units=km
New Line.ND134119063$ND134119052 phases=4 Bus1=134119063.0.1.2.3 Bus2=-777777134119063.0.1.2.3 LineCode=4/0_ACSR_3PH_4/0_ACSR_N_12KV_4 Length=0.000619 units=km
New Line.PH811$4360934E phases=4 Bus1=222433728.0.1.2.3 Bus2=12365996.0.1.2.3 LineCode=4/0_ACSR_3PH_4/0_ACSR_N_12KV_4 Length=0.010907 units=km
New Line.2363468E$183407026 phases=3 Bus1=12346784.1.2.3 Bus2=183407028.1.2.3 LineCode=4/0_AL_3PH_12KV_3 Length=0.040429 units=km
New Line.183407026$P5332023-1 phases=3 Bus1=183407029.1.2.3 Bus2=164101418.1.2.3 LineCode=4/0_AL_3PH_12KV_3 Length=0.001825 units=km
New Line.ND12371844$2293720E phases=4 Bus1=12371844.0.1.2.3 Bus2=12345378.0.1.2.3 LineCode=954_ACSR_3PH_954_ACSR_N_12KV_4 Length=0.0016 units=km
New Line.B5331691-1$B5331690-2 phases=1 Bus1=12355501.3 Bus2=12355564.3 LineCode=2_CLP_1PH_12KV_1 Length=0.085503 units=km
New Line.P5344989-2$P5344988-1 phases=1 Bus1=12362660.2 Bus2=12362741.2 LineCode=2_CLP_1PH_12KV_1 Length=0.188245 units=km
New Line.197084219$P5344999-2 phases=1 Bus1=197084222.1 Bus2=12362957.1 LineCode=2_CLP_1PH_12KV_1 Length=0.001219 units=km
New Line.ND12371456$B5186613-1 phases=1 Bus1=12355226.3 Bus2=12371456.3 LineCode=2_CLP_1PH_12KV_1 Length=0.112242 units=km
New Line.ND197263028$GS1056-6 phases=3 Bus1=235689693.1.2.3 Bus2=197263028.1.2.3 LineCode=1/0_CLP_3PH_12KV_3 Length=0.006483 units=km
New Line.88075286$88075188 phases=1 Bus1=88075288.1 Bus2=88075190.1 LineCode=2_CLP_1PH_12KV_1 Length=0.081677 units=km
New Line.B5315436-1$B5315435-2 phases=1 Bus1=12347737.1 Bus2=12347800.1 LineCode=1/0_CLP_1PH_12KV_1 Length=0.144732 units=km
New Line.B5315446-2$B5315445-1 phases=1 Bus1=12348044.1 Bus2=12348125.1 LineCode=2_CLP_1PH_12KV_1 Length=0.115847 units=km
New Line.B5315428-2$B5315427-1 phases=1 Bus1=12348598.3 Bus2=12348679.3 LineCode=1/0_CLP_1PH_12KV_1 Length=0.167586 units=km
New Line.P5385422-2$P5348446-1 phases=1 Bus1=12348933.1 Bus2=12349014.1 LineCode=2_CLP_1PH_12KV_1 Length=0.163278 units=km
New Line.ND12371456$P5520015-2 phases=1 Bus1=12371456.3 Bus2=12355307.3 LineCode=2_CLP_1PH_12KV_1 Length=0.175755 units=km
New Line.P5347255-1$ND12371456 phases=1 Bus1=12371456.3 Bus2=12355370.3 LineCode=2_CLP_1PH_12KV_1 Length=0.028228 units=km
New Line.P5348441-1$P5348442-2 phases=1 Bus1=12358064.2 Bus2=12358001.2 LineCode=1/0_CLP_1PH_12KV_1 Length=0.134722 units=km
New Line.P5344998-2$P5344997-1 phases=1 Bus1=12363020.1 Bus2=12363101.1 LineCode=2_CLP_1PH_12KV_1 Length=0.061965 units=km
New Line.183407058$P5497114-1 phases=1 Bus1=183407061.2 Bus2=12365880.2 LineCode=2_CLP_1PH_12KV_1 Length=0.000826 units=km
New Line.B5315439-2$ND12372858 phases=1 Bus1=12348197.1 Bus2=12372858.1 LineCode=2_CLP_1PH_12KV_1 Length=0.182069 units=km
New Line.ND14989944$ND197263028 phases=3 Bus1=197263028.1.2.3 Bus2=14989944.1.2.3 LineCode=2_CLP_3PH_12KV_3 Length=0.004163 units=km
New Line.ND197262798$GS1056-3 phases=1 Bus1=235689666.1 Bus2=197262798.1 LineCode=750_CLP_1PH_12KV_1 Length=0.044859 units=km
New Line.197263088$ND197263028 phases=3 Bus1=197263028.1.2.3 Bus2=197263090.1.2.3 LineCode=1/0_CLP_3PH_12KV_3 Length=0.010139 units=km
New Line.B5315440-2$ND12372858 phases=1 Bus1=12372858.1 Bus2=12348269.1 LineCode=2_CLP_1PH_12KV_1 Length=0.021415 units=km
New Line.B5315441-1$ND12372858 phases=1 Bus1=12372858.1 Bus2=12348404.1 LineCode=2_CLP_1PH_12KV_1 Length=0.082776 units=km
New Line.P5411421-1$B5199439-1 phases=1 Bus1=12354744.2 Bus2=12363469.2 LineCode=2_CLP_1PH_12KV_1 Length=0.178382 units=km
New Line.B5186688-1$ND12371429 phases=1 Bus1=12363667.3 Bus2=12371429.3 LineCode=2_CLP_1PH_12KV_1 Length=0.007487 units=km
New Line.ND197262798$PMS1207-1 phases=1 Bus1=197262798.1 Bus2=14965737.1 LineCode=750_CLP_1PH_12KV_1 Length=0.323851 units=km
New Line.ND14989944$14988654 phases=1 Bus1=14989944.2 Bus2=14988656.2 LineCode=2_CLP_1PH_12KV_1 Length=0.078706 units=km
New Line.ND14989350$ND197262798 phases=1 Bus1=197262798.1 Bus2=14989350.1 LineCode=750_CLP_1PH_12KV_1 Length=0.157991 units=km
New Line.88075188$P5565417-1 phases=1 Bus1=88075191.1 Bus2=88074352.1 LineCode=2_CLP_1PH_12KV_1 Length=0.003378 units=km
New Line.ND12371429$B5186689-1 phases=1 Bus1=12371429.3 Bus2=12354456.3 LineCode=2_CLP_1PH_12KV_1 Length=0.155347 units=km
New Line.P5520016-1$ND12371429 phases=1 Bus1=12371429.3 Bus2=12354528.3 LineCode=2_CLP_1PH_12KV_1 Length=0.200216 units=km
New Line.P5344990-1$P5344989-1 phases=1 Bus1=12362732.2 Bus2=12362804.2 LineCode=2_CLP_1PH_12KV_1 Length=0.118643 units=km
New Line.GS2943-3$GS1136-3 phases=3 Bus1=14920255.1.2.3 Bus2=14920617.1.2.3 LineCode=750_CLP_3PH_12KV_3 Length=0.408884 units=km
New Line.GS2943-1$P5331654-1 phases=3 Bus1=14920247.1.2.3 Bus2=14948357.1.2.3 LineCode=1/0_CLP_3PH_12KV_3 Length=0.045976 units=km
New Line.ND14989350$PMS1448-1 phases=1 Bus1=14989350.1 Bus2=14966527.1 LineCode=2_CLP_1PH_12KV_1 Length=0.04451 units=km
New Line.ND14989350$PMS1251-1 phases=1 Bus1=14989350.1 Bus2=14966576.1 LineCode=2_CLP_1PH_12KV_1 Length=0.022546 units=km
New Line.P5347568-1$GS1056-1 phases=3 Bus1=235689648.1.2.3 Bus2=14967108.1.2.3 LineCode=1/0_CLP_3PH_12KV_3 Length=0.04158 units=km
New Line.197084207$P5344999-1 phases=1 Bus1=12362948.1 Bus2=197084210.1 LineCode=2_CLP_1PH_12KV_1 Length=0.001223 units=km
New Line.197263088$PME3025-1 phases=3 Bus1=197263091.1.2.3 Bus2=197262982.1.2.3 LineCode=1/0_CLP_3PH_12KV_3 Length=0.004615 units=km
New Line.4788910E$GS2287-3 phases=3 Bus1=94274870.1.2.3 Bus2=213513141.1.2.3 LineCode=750_CLP_3PH_12KV_3 Length=0.172706 units=km
New Line.4788910EP1$GS2287-4 phases=3 Bus1=213513149.1.2.3 Bus2=94275096.1.2.3 LineCode=750_CLP_3PH_12KV_3 Length=0.169932 units=km
New Line.GS2287-1$4266191E phases=3 Bus1=213513133.1.2.3 Bus2=94275067.1.2.3 LineCode=750_CLP_3PH_12KV_3 Length=0.123944 units=km
New Line.2293720E$OS1105-2 phases=3 Bus1=12345379.1.2.3 Bus2=12345412.1.2.3 LineCode=750_CLP_3PH_12KV_3 Length=0.092006 units=km
New Line.J437A-1P$OS1105-3 phases=3 Bus1=12345428.1.2.3 Bus2=12363838.1.2.3 LineCode=750_CLP_3PH_12KV_3 Length=0.27679 units=km
New Line.J633A-2P$OS1105-1 phases=3 Bus1=12345420.1.2.3 Bus2=12364405.1.2.3 LineCode=1/0_CLP_3PH_12KV_3 Length=0.677514 units=km
New Line.ND12371582$OS1105-4 phases=2 Bus1=12345436.2.3 Bus2=12371582.2.3 LineCode=2_CLP_2PH_12KV_2 Length=0.093996 units=km
New Line.ND12371582$BS1109-1 phases=2 Bus1=12371582.2.3 Bus2=12345898.2.3 LineCode=2_CLP_2PH_12KV_2 Length=0.029328 units=km
New Line.ND12371582$BS1141-1 phases=1 Bus1=12371582.2 Bus2=12346453.2 LineCode=2_CLP_1PH_12KV_1 Length=0.041539 units=km
New Line.4914810E$GS4005-2 phases=3 Bus1=12346845.1.2.3 Bus2=222434164.1.2.3 LineCode=1000_JCN_3PH_12KV_3 Length=0.136355 units=km
New Line.PS0793$4042187E phases=4 Bus1=12336433.0.1.2.3 Bus2=12366086.0.1.2.3 LineCode=4/0_ACSR_3PH_4/0_ACSR_N_12KV_4 Length=0.16997 units=km
New Line.PS0793$ND135555353 phases=4 Bus1=12366087.0.1.2.3 Bus2=135555353.0.1.2.3 LineCode=4/0_ACSR_3PH_4/0_ACSR_N_12KV_4 Length=3.40741 units=km
New Line.ND135555335$ND135555353 phases=4 Bus1=135555353.0.1.2.3 Bus2=135555335.0.1.2.3 LineCode=4/0_ACSR_3PH_4/0_ACSR_N_12KV_4 Length=0.26775 units=km
New Line.4788910E$ND135555335 phases=4 Bus1=135555335.0.1.2.3 Bus2=94274869.0.1.2.3 LineCode=4/0_ACSR_3PH_4/0_ACSR_N_12KV_4 Length=0.139856 units=km
New Line.ND12371844$4788910EP1 phases=4 Bus1=94275095.0.1.2.3 Bus2=12371844.0.1.2.3 LineCode=4/0_ACSR_3PH_4/0_ACSR_N_12KV_4 Length=0.06143 units=km
New Line.ND12371343$4266191E phases=4 Bus1=94275066.0.1.2.3 Bus2=12371343.0.1.2.3 LineCode=4/0_ACSR_3PH_4/0_ACSR_N_12KV_4 Length=0.003726 units=km
New Line.ND12371844$2293721E phases=4 Bus1=12371844.0.1.2.3 Bus2=135555342.0.1.2.3 LineCode=4/0_ACSR_3PH_4/0_ACSR_N_12KV_4 Length=0.078426 units=km
New Line.RCS0462$ND12371343 phases=4 Bus1=12371343.0.1.2.3 Bus2=152253419.0.1.2.3 LineCode=4/0_ACSR_3PH_4/0_ACSR_N_12KV_4 Length=0.065684 units=km
New Line.2293721E$ND177240832 phases=4 Bus1=135555342.0.1.2.3 Bus2=177240832.0.1.2.3 LineCode=4/0_ACSR_3PH_4/0_ACSR_N_12KV_4 Length=0.07747 units=km
New Line.ND177240832$2293724E phases=4 Bus1=177240832.0.1.2.3 Bus2=135555366.0.1.2.3 LineCode=4/0_ACSR_3PH_4/0_ACSR_N_12KV_4 Length=0.152423 units=km
New Line.RCS0462$ND12366313 phases=4 Bus1=152253420.0.1.2.3 Bus2=12366313.0.1.2.3 LineCode=4/0_ACSR_3PH_4/0_ACSR_N_12KV_4 Length=0.044677 units=km
New Line.2293724E$RCS0580 phases=4 Bus1=135555366.0.1.2.3 Bus2=14988310.0.1.2.3 LineCode=4/0_ACSR_3PH_4/0_ACSR_N_12KV_4 Length=0.113227 units=km
New Line.ND223047632$ND12366313 phases=4 Bus1=12366313.0.1.2.3 Bus2=223047632.0.1.2.3 LineCode=4/0_ACSR_3PH_4/0_ACSR_N_12KV_4 Length=0.114332 units=km
New Line.ND12372760$ND223047632 phases=4 Bus1=223047632.0.1.2.3 Bus2=12372760.0.1.2.3 LineCode=4/0_ACSR_3PH_4/0_ACSR_N_12KV_4 Length=0.166874 units=km
New Line.ND12372760$2363468E phases=3 Bus1=12372760.1.2.3 Bus2=12346783.1.2.3 LineCode=4/0_ACSR_3PH_12KV_3 Length=0.052588 units=km
New Line.4914810E$ND12372760 phases=3 Bus1=12372760.1.2.3 Bus2=12346844.1.2.3 LineCode=4/0_ACSR_3PH_12KV_3 Length=0.250213 units=km
New Line.J633A-1P$PMS1411-1 phases=1 Bus1=12364397.1 Bus2=12363297.1 LineCode=2_CLP_1PH_12KV_1 Length=0.335737 units=km
New Line.P5345270-1$BS1109-1 phases=1 Bus1=12345899.3 Bus2=12366013.3 LineCode=2_CLP_1PH_12KV_1 Length=0.053927 units=km
New Line.BS1141-1$ND12371502 phases=1 Bus1=12346452.2 Bus2=12371502.2 LineCode=2_CLP_1PH_12KV_1 Length=0.028991 units=km
New Line.J437A-2P$P5385410-A phases=3 Bus1=12363862.1.2.3 Bus2=153081846.1.2.3 LineCode=750_CLP_3PH_12KV_3 Length=0.068321 units=km
New Line.P5345275-1$ND12371502 phases=1 Bus1=12371502.2 Bus2=12346571.2 LineCode=2_CLP_1PH_12KV_1 Length=0.0777 units=km
New Line.J437A-3P$P5416866-A phases=3 Bus1=12363846.1.2.3 Bus2=153082026.1.2.3 LineCode=750_CLP_3PH_12KV_3 Length=0.204015 units=km
New Line.ND12371502$200009445 phases=1 Bus1=12371502.2 Bus2=200009447.2 LineCode=2_CLP_1PH_12KV_1 Length=0.017123 units=km
New Line.B5315429-2$B5315428-1 phases=1 Bus1=12348670.3 Bus2=12348751.3 LineCode=1/0_CLP_1PH_12KV_1 Length=0.164647 units=km
New Line.P5385423-1$P5385422-1 phases=1 Bus1=12349005.1 Bus2=12349077.1 LineCode=2_CLP_1PH_12KV_1 Length=0.069276 units=km
New Line.14988654$PMS1054-1 phases=1 Bus1=14988657.2 Bus2=14965687.2 LineCode=2_CLP_1PH_12KV_1 Length=0.002137 units=km
New Line.GS2943-4$ND14990157 phases=3 Bus1=14920263.1.2.3 Bus2=14990157.1.2.3 LineCode=1/0_CLP_3PH_12KV_3 Length=0.022343 units=km
New Line.196568115$PMS1207-1 phases=1 Bus1=14965736.1 Bus2=196568118.1 LineCode=2_CLP_1PH_12KV_1 Length=0.003301 units=km
New Line.B5315442-2$B5315440-1 phases=1 Bus1=12348260.1 Bus2=12348341.1 LineCode=2_CLP_1PH_12KV_1 Length=0.142909 units=km
New Line.P5344986-2$197084207 phases=1 Bus1=197084209.1 Bus2=12363173.1 LineCode=2_CLP_1PH_12KV_1 Length=0.12304 units=km
New Line.P5411421-2$ND12371795 phases=1 Bus1=12363478.2 Bus2=12371795.2 LineCode=2_CLP_1PH_12KV_1 Length=0.012287 units=km
New Line.PMS1448-1$P5411233-1 phases=1 Bus1=14966526.1 Bus2=14966626.1 LineCode=2_CLP_1PH_12KV_1 Length=0.059183 units=km
New Line.P5386561-2$PMS1251-1 phases=1 Bus1=14966577.1 Bus2=14966851.1 LineCode=2_CLP_1PH_12KV_1 Length=0.096853 units=km
New Line.ND14990157$V5331653T1 phases=3 Bus1=14990157.1.2.3 Bus2=14988466.1.2.3 LineCode=1/0_CLP_3PH_12KV_3 Length=0.010888 units=km
New Line.ND14990157$ND15013035 phases=3 Bus1=14990157.1.2.3 Bus2=15013035.1.2.3 LineCode=1/0_CLP_3PH_12KV_3 Length=0.066206 units=km
New Line.PME3025-1$ND197263059 phases=1 Bus1=197262981.1 Bus2=197263059.1 LineCode=1/0_CLP_1PH_12KV_1 Length=0.00367 units=km
New Line.P5402792-2$PMS1411-1 phases=1 Bus1=12363298.1 Bus2=12346101.1 LineCode=2_CLP_1PH_12KV_1 Length=0.033993 units=km
New Line.J437A-4P$ND12371889 phases=3 Bus1=12363854.1.2.3 Bus2=12371889.1.2.3 LineCode=1/0_CLP_3PH_12KV_3 Length=0.032904 units=km
New Line.GS1827-3$GS4005-1 phases=3 Bus1=222434155.1.2.3 Bus2=218853964.1.2.3 LineCode=1000_JCN_3PH_12KV_3 Length=0.058618 units=km
New Line.PH181E$GS4005-3 phases=3 Bus1=222434173.1.2.3 Bus2=222434326.1.2.3 LineCode=1/0_JCN_3PH_12KV_3 Length=0.098468 units=km
New Line.P5345270-2$P5345271-2 phases=1 Bus1=12366022.3 Bus2=12345957.3 LineCode=2_CLP_1PH_12KV_1 Length=0.100874 units=km
New Line.200009445$P5347617-1 phases=1 Bus1=200009448.2 Bus2=12346502.2 LineCode=2_CLP_1PH_12KV_1 Length=0.000662 units=km
New Line.ND12371889$V5385437T1 phases=3 Bus1=12371889.1.2.3 Bus2=12366492.1.2.3 LineCode=1/0_CLP_3PH_12KV_3 Length=0.011725 units=km
New Line.P5385410-B$P5423678-A phases=3 Bus1=153081829.1.2.3 Bus2=153081917.1.2.3 LineCode=750_CLP_3PH_12KV_3 Length=0.156495 units=km
...

! Switches
New Line.1600730E:PS0793 phases=3 Bus1=12366086.1.2.3 Bus2=12366087.1.2.3 switch=y r1=0.001 x1=0.001 r0=0.001 x0=0.001 Length=0.001 units=km
New Line.5442893:GS2287-3 phases=3 Bus1=213513141.1.2.3 Bus2=213513112.1.2.3 switch=y r1=0.001 x1=0.001 r0=0.001 x0=0.001 Length=0.001 units=km
New Line.5442893:GS2287-4 phases=3 Bus1=213513118.1.2.3 Bus2=213513149.1.2.3 switch=y r1=0.001 x1=0.001 r0=0.001 x0=0.001 Length=0.001 units=km
New Line.5442893:GS2287-1 phases=3 Bus1=213513105.1.2.3 Bus2=213513133.1.2.3 switch=y r1=0.001 x1=0.001 r0=0.001 x0=0.001 Length=0.001 units=km
New Line.4213371E:RCS0462 phases=3 Bus1=152253419.1.2.3 Bus2=152253420.1.2.3 switch=y r1=0.001 x1=0.001 r0=0.001 x0=0.001 Length=0.001 units=km
New Line.5345267:OS1105-2 phases=3 Bus1=12345412.1.2.3 Bus2=12345393.1.2.3 switch=y r1=0.001 x1=0.001 r0=0.001 x0=0.001 Length=0.001 units=km
New Line.5345267:OS1105-1 phases=3 Bus1=12345392.1.2.3 Bus2=12345420.1.2.3 switch=y r1=0.001 x1=0.001 r0=0.001 x0=0.001 Length=0.001 units=km
New Line.5345267:OS1105-3 phases=3 Bus1=12345399.1.2.3 Bus2=12345428.1.2.3 switch=y r1=0.001 x1=0.001 r0=0.001 x0=0.001 Length=0.001 units=km
New Line.5345267:OS1105-4 phases=3 Bus1=12345405.1.2.3 Bus2=12345436.1.2.3 switch=y r1=0.001 x1=0.001 r0=0.001 x0=0.001 Length=0.001 units=km
New Line.5385437:J437A-1 phases=3 Bus1=12363838.1.2.3 Bus2=12363839.1.2.3 switch=y r1=0.001 x1=0.001 r0=0.001 x0=0.001 Length=0.001 units=km
New Line.5383633:J633A-2 phases=3 Bus1=12364405.1.2.3 Bus2=12364406.1.2.3 switch=y r1=0.001 x1=0.001 r0=0.001 x0=0.001 Length=0.001 units=km
New Line.5385437:J437A-2 phases=3 Bus1=12363863.1.2.3 Bus2=12363862.1.2.3 switch=y r1=0.001 x1=0.001 r0=0.001 x0=0.001 Length=0.001 units=km
New Line.5383633:J633A-1 phases=3 Bus1=12364398.1.2.3 Bus2=12364397.1.2.3 switch=y r1=0.001 x1=0.001 r0=0.001 x0=0.001 Length=0.001 units=km
New Line.5578505:GS4005-2 phases=3 Bus1=222434164.1.2.3 Bus2=222434123.1.2.3 switch=y r1=0.001 x1=0.001 r0=0.001 x0=0.001 Length=0.001 units=km
New Line.5385437:J437A-3 phases=3 Bus1=12363847.1.2.3 Bus2=12363846.1.2.3 switch=y r1=0.001 x1=0.001 r0=0.001 x0=0.001 Length=0.001 units=km
New Line.5385437:J437A-4 phases=3 Bus1=12363855.1.2.3 Bus2=12363854.1.2.3 switch=y r1=0.001 x1=0.001 r0=0.001 x0=0.001 Length=0.001 units=km
New Line.5348081:GS1136-3 phases=3 Bus1=14920617.1.2.3 Bus2=14920588.1.2.3 switch=y r1=0.001 x1=0.001 r0=0.001 x0=0.001 Length=0.001 units=km
New Line.5578505:GS4005-1 phases=3 Bus1=222434122.1.2.3 Bus2=222434155.1.2.3 switch=y r1=0.001 x1=0.001 r0=0.001 x0=0.001 Length=0.001 units=km
New Line.5578505:GS4005-3 phases=3 Bus1=222434129.1.2.3 Bus2=222434173.1.2.3 switch=y r1=0.001 x1=0.001 r0=0.001 x0=0.001 Length=0.001 units=km
New Line.5578505:GS4005-4 phases=3 Bus1=222434135.1.2.3 Bus2=222434182.1.2.3 switch=y r1=0.001 x1=0.001 r0=0.001 x0=0.001 Length=0.001 units=km
New Line.5331727:GS1827-3 phases=3 Bus1=218853964.1.2.3 Bus2=218853932.1.2.3 switch=y r1=0.001 x1=0.001 r0=0.001 x0=0.001 Length=0.001 units=km
New Line.5578505:GS4005-5 phases=3 Bus1=222434141.1.2.3 Bus2=222434191.1.2.3 switch=y r1=0.001 x1=0.001 r0=0.001 x0=0.001 Length=0.001 units=km
New Line.5348081:GS1136-2 phases=3 Bus1=14920582.1.2.3 Bus2=14920601.1.2.3 switch=y r1=0.001 x1=0.001 r0=0.001 x0=0.001 Length=0.001 units=km
New Line.5348081:GS1136-4 phases=3 Bus1=14920594.1.2.3 Bus2=14920625.1.2.3 switch=y r1=0.001 x1=0.001 r0=0.001 x0=0.001 Length=0.001 units=km
New Line.5186609:J609A-1 phases=3 Bus1=12363965.1.2.3 Bus2=12363964.1.2.3 switch=y r1=0.001 x1=0.001 r0=0.001 x0=0.001 Length=0.001 units=km
New Line.5588759:PME2809-4 phases=3 Bus1=12354255.1.2.3 Bus2=12354241.1.2.3 switch=y r1=0.001 x1=0.001 r0=0.001 x0=0.001 Length=0.001 units=km
New Line.5425972:J0972-1 phases=1 Bus1=14934293.3 Bus2=14934294.3 switch=y r1=0.001 x1=0.001 r0=0.001 x0=0.001 Length=0.001 units=km
New Line.5348061:GS1055-3 phases=3 Bus1=233229023.1.2.3 Bus2=233228991.1.2.3 switch=y r1=0.001 x1=0.001 r0=0.001 x0=0.001 Length=0.001 units=km
New Line.5425972:J0972-2 phases=1 Bus1=14934310.3 Bus2=14934309.3 switch=y r1=0.001 x1=0.001 r0=0.001 x0=0.001 Length=0.001 units=km
New Line.5345270:P5345270-1 phases=1 Bus1=12366013.3 Bus2=12366014.3 switch=y r1=0.001 x1=0.001 r0=0.001 x0=0.001 Length=0.001 units=km
New Line.5385410:P5385410-A phases=3 Bus1=153081846.1.2.3 Bus2=153081830.1.2.3 switch=y r1=0.001 x1=0.001 r0=0.001 x0=0.001 Length=0.001 units=km
New Line.5332023:P5332023-1 phases=3 Bus1=164101418.1.2.3 Bus2=164101419.1.2.3 switch=y r1=0.001 x1=0.001 r0=0.001 x0=0.001 Length=0.001 units=km
New Line.5315440:B5315440-1 phases=1 Bus1=12348261.1 Bus2=12348260.1 switch=y r1=0.001 x1=0.001 r0=0.001 x0=0.001 Length=0.001 units=km
New Line.5186689:B5186689-1 phases=1 Bus1=12354456.3 Bus2=12354457.3 switch=y r1=0.001 x1=0.001 r0=0.001 x0=0.001 Length=0.001 units=km
New Line.5520016:P5520016-1 phases=1 Bus1=12354528.3 Bus2=12354529.3 switch=y r1=0.001 x1=0.001 r0=0.001 x0=0.001 Length=0.001 units=km
New Line.5344990:P5344990-1 phases=1 Bus1=12362804.2 Bus2=12362805.2 switch=y r1=0.001 x1=0.001 r0=0.001 x0=0.001 Length=0.001 units=km
New Line.5411421:P5411421-2 phases=1 Bus1=12363470.2 Bus2=12363478.2 switch=y r1=0.001 x1=0.001 r0=0.001 x0=0.001 Length=0.001 units=km
New Line.5331654:P5331654-1 phases=3 Bus1=14948357.1.2.3 Bus2=14948358.1.2.3 switch=y r1=0.001 x1=0.001 r0=0.001 x0=0.001 Length=0.001 units=km
New Line.5347568:P5347568-1 phases=3 Bus1=14967108.1.2.3 Bus2=14967109.1.2.3 switch=y r1=0.001 x1=0.001 r0=0.001 x0=0.001 Length=0.001 units=km
New Line.5315429:B5315429-2 phases=1 Bus1=12348751.3 Bus2=12348743.3 switch=y r1=0.001 x1=0.001 r0=0.001 x0=0.001 Length=0.001 units=km
New Line.5385423:P5385423-1 phases=1 Bus1=12349077.1 Bus2=12349078.1 switch=y r1=0.001 x1=0.001 r0=0.001 x0=0.001 Length=0.001 units=km
New Line.5520016:P5520016-2 phases=1 Bus1=12354529.3 Bus2=12354537.3 switch=y r1=0.001 x1=0.001 r0=0.001 x0=0.001 Length=0.001 units=km
New Line.5345275:P5345275-1 phases=1 Bus1=12346571.2 Bus2=12346572.2 switch=y r1=0.001 x1=0.001 r0=0.001 x0=0.001 Length=0.001 units=km
New Line.5345270:P5345270-2 phases=1 Bus1=12366014.3 Bus2=12366022.3 switch=y r1=0.001 x1=0.001 r0=0.001 x0=0.001 Length=0.001 units=km
New Line.5385410:P5385410-B phases=3 Bus1=153081830.1.2.3 Bus2=153081829.1.2.3 switch=y r1=0.001 x1=0.001 r0=0.001 x0=0.001 Length=0.001 units=km
New Line.5385410:P5385410-T phases=3 Bus1=153081830.1.2.3 Bus2=153081838.1.2.3 switch=y r1=0.001 x1=0.001 r0=0.001 x0=0.001 Length=0.001 units=km
New Line.5416866:P5416866-A phases=3 Bus1=153082026.1.2.3 Bus2=153082027.1.2.3 switch=y r1=0.001 x1=0.001 r0=0.001 x0=0.001 Length=0.001 units=km
New Line.5402792:P5402792-2 phases=1 Bus1=12346101.1 Bus2=12346093.1 switch=y r1=0.001 x1=0.001 r0=0.001 x0=0.001 Length=0.001 units=km
New Line.5345275:P5345275-2 phases=1 Bus1=12346572.2 Bus2=12346580.2 switch=y r1=0.001 x1=0.001 r0=0.001 x0=0.001 Length=0.001 units=km
New Line.5416866:P5416866-T phases=3 Bus1=153082027.1.2.3 Bus2=153082035.1.2.3 switch=y r1=0.001 x1=0.001 r0=0.001 x0=0.001 Length=0.001 units=km
New Line.5416866:P5416866-B phases=3 Bus1=153082027.1.2.3 Bus2=153082044.1.2.3 switch=y r1=0.001 x1=0.001 r0=0.001 x0=0.001 Length=0.001 units=km
New Line.5345271:P5345271-2 phases=1 Bus1=12345957.3 Bus2=12345949.3 switch=y r1=0.001 x1=0.001 r0=0.001 x0=0.001 Length=0.001 units=km
New Line.5402792:P5402792-1 phases=1 Bus1=12346093.1 Bus2=12346092.1 switch=y r1=0.001 x1=0.001 r0=0.001 x0=0.001 Length=0.001 units=km
New Line.5347617:P5347617-1 phases=1 Bus1=12346502.2 Bus2=12346503.2 switch=y r1=0.001 x1=0.001 r0=0.001 x0=0.001 Length=0.001 units=km
New Line.5411243:P5411243-2 phases=1 Bus1=14966699.1 Bus2=14966707.1 switch=y r1=0.001 x1=0.001 r0=0.001 x0=0.001 Length=0.001 units=km
New Line.5386562:P5386562-1 phases=1 Bus1=14966915.1 Bus2=14966914.1 switch=y r1=0.001 x1=0.001 r0=0.001 x0=0.001 Length=0.001 units=km
New Line.5348047:P5348047-1 phases=1 Bus1=14967340.1 Bus2=14967339.1 switch=y r1=0.001 x1=0.001 r0=0.001 x0=0.001 Length=0.001 units=km
New Line.5348443:P5348443-2 phases=1 Bus1=14968060.1 Bus2=14968068.1 switch=y r1=0.001 x1=0.001 r0=0.001 x0=0.001 Length=0.001 units=km
New Line.5348175:P5348175-2 phases=1 Bus1=14975407.2 Bus2=14975415.2 switch=y r1=0.001 x1=0.001 r0=0.001 x0=0.001 Length=0.001 units=km
New Line.5402751:P5402751-1 phases=1 Bus1=14933740.2 Bus2=14933741.2 switch=y r1=0.001 x1=0.001 r0=0.001 x0=0.001 Length=0.001 units=km
New Line.5315442:B5315442-2 phases=1 Bus1=12348341.1 Bus2=12348333.1 switch=y r1=0.001 x1=0.001 r0=0.001 x0=0.001 Length=0.001 units=km
New Line.5344986:P5344986-2 phases=1 Bus1=12363173.1 Bus2=12363165.1 switch=y r1=0.001 x1=0.001 r0=0.001 x0=0.001 Length=0.001 units=km
New Line.4042187E:4042187E phases=3 Bus1=12336434.1.2.3 Bus2=12336433.1.2.3 switch=y r1=0.001 x1=0.001 r0=0.001 x0=0.001 Length=0.001 units=km
New Line.4788910E:4788910E phases=3 Bus1=94274869.1.2.3 Bus2=94274870.1.2.3 switch=y r1=0.001 x1=0.001 r0=0.001 x0=0.001 Length=0.001 units=km
New Line.4788910E:4788910EP1 phases=3 Bus1=94275096.1.2.3 Bus2=94275095.1.2.3 switch=y r1=0.001 x1=0.001 r0=0.001 x0=0.001 Length=0.001 units=km
New Line.4266191E:4266191E phases=3 Bus1=94275067.1.2.3 Bus2=94275066.1.2.3 switch=y r1=0.001 x1=0.001 r0=0.001 x0=0.001 Length=0.001 units=km
New Line.2293720E:2293720E phases=3 Bus1=12345378.1.2.3 Bus2=12345379.1.2.3 switch=y r1=0.001 x1=0.001 r0=0.001 x0=0.001 Length=0.001 units=km
New Line.2363468E:2363468E phases=3 Bus1=12346783.1.2.3 Bus2=12346784.1.2.3 switch=y r1=0.001 x1=0.001 r0=0.001 x0=0.001 Length=0.001 units=km
New Line.4914810E:4914810E phases=3 Bus1=12346844.1.2.3 Bus2=12346845.1.2.3 switch=y r1=0.001 x1=0.001 r0=0.001 x0=0.001 Length=0.001 units=km
New Line.4645181E:PH181E phases=3 Bus1=222434326.1.2.3 Bus2=222434325.1.2.3 switch=y r1=0.001 x1=0.001 r0=0.001 x0=0.001 Length=0.001 units=km
New Line.5411233:P5411233-1 phases=1 Bus1=14966626.1 Bus2=14966627.1 switch=y r1=0.001 x1=0.001 r0=0.001 x0=0.001 Length=0.001 units=km
New Line.5386561:P5386561-2 phases=1 Bus1=14966851.1 Bus2=14966843.1 switch=y r1=0.001 x1=0.001 r0=0.001 x0=0.001 Length=0.001 units=km
New Line.5386472:P5386472-2 phases=1 Bus1=14947718.1 Bus2=14947710.1 switch=y r1=0.001 x1=0.001 r0=0.001 x0=0.001 Length=0.001 units=km
New Line.5402686:P5402686-2 phases=1 Bus1=14966175.1 Bus2=14966167.1 switch=y r1=0.001 x1=0.001 r0=0.001 x0=0.001 Length=0.001 units=km
New Line.5402701:P5402701-2 phases=1 Bus1=14966319.1 Bus2=14966311.1 switch=y r1=0.001 x1=0.001 r0=0.001 x0=0.001 Length=0.001 units=km
New Line.5402751:P5402751-2 phases=1 Bus1=14933741.2 Bus2=14933749.2 switch=y r1=0.001 x1=0.001 r0=0.001 x0=0.001 Length=0.001 units=km
New Line.5353086:P5353086-2 phases=1 Bus1=14947502.1 Bus2=14947494.1 switch=y r1=0.001 x1=0.001 r0=0.001 x0=0.001 Length=0.001 units=km
New Line.5386472:P5386472-1 phases=1 Bus1=14947710.1 Bus2=14947709.1 switch=y r1=0.001 x1=0.001 r0=0.001 x0=0.001 Length=0.001 units=km
New Line.5386496:P5386496-2 phases=1 Bus1=14947934.1 Bus2=14947926.1 switch=y r1=0.001 x1=0.001 r0=0.001 x0=0.001 Length=0.001 units=km
New Line.5402701:P5402701-1 phases=1 Bus1=14966311.1 Bus2=14966310.1 switch=y r1=0.001 x1=0.001 r0=0.001 x0=0.001 Length=0.001 units=km
New Line.5402631:P5402631-1 phases=1 Bus1=14966770.1 Bus2=14966771.1 switch=y r1=0.001 x1=0.001 r0=0.001 x0=0.001 Length=0.001 units=km
New Line.5386563:P5386563-2 phases=1 Bus1=14966995.1 Bus2=14966987.1 switch=y r1=0.001 x1=0.001 r0=0.001 x0=0.001 Length=0.001 units=km
New Line.5348048:P5348048-1 phases=1 Bus1=14967411.1 Bus2=14967412.1 switch=y r1=0.001 x1=0.001 r0=0.001 x0=0.001 Length=0.001 units=km
New Line.5353086:P5353086-1 phases=1 Bus1=14947494.1 Bus2=14947493.1 switch=y r1=0.001 x1=0.001 r0=0.001 x0=0.001 Length=0.001 units=km
New Line.5386496:P5386496-1 phases=1 Bus1=14947926.1 Bus2=14947925.1 switch=y r1=0.001 x1=0.001 r0=0.001 x0=0.001 Length=0.001 units=km
New Line.5348048:P5348048-2 phases=1 Bus1=14967412.1 Bus2=14967420.1 switch=y r1=0.001 x1=0.001 r0=0.001 x0=0.001 Length=0.001 units=km
New Line.5425971:P5425971-2 phases=1 Bus1=14974713.3 Bus2=14974705.3 switch=y r1=0.001 x1=0.001 r0=0.001 x0=0.001 Length=0.001 units=km
New Line.5386473:P5386473-2 phases=1 Bus1=14947790.1 Bus2=14947782.1 switch=y r1=0.001 x1=0.001 r0=0.001 x0=0.001 Length=0.001 units=km
New Line.5186686:B5186686-2 phases=1 Bus1=12354609.3 Bus2=12354601.3 switch=y r1=0.001 x1=0.001 r0=0.001 x0=0.001 Length=0.001 units=km
New Line.5199436:B5199436-1 phases=1 Bus1=12354816.2 Bus2=12354817.2 switch=y r1=0.001 x1=0.001 r0=0.001 x0=0.001 Length=0.001 units=km
New Line.5411233:P5411233-2 phases=1 Bus1=14966627.1 Bus2=14966635.1 switch=y r1=0.001 x1=0.001 r0=0.001 x0=0.001 Length=0.001 units=km
New Line.5386561:P5386561-1 phases=1 Bus1=14966843.1 Bus2=14966842.1 switch=y r1=0.001 x1=0.001 r0=0.001 x0=0.001 Length=0.001 units=km
New Line.CAB_2293721E:2293721E phases=3 Bus1=135555342.1.2.3 Bus2=12336522.1.2.3 switch=y r1=0.001 x1=0.001 r0=0.001 x0=0.001 Length=0.001 units=km
New Line.CAB_2293724E:2293724E phases=3 Bus1=135555366.1.2.3 Bus2=12336493.1.2.3 switch=y r1=0.001 x1=0.001 r0=0.001 x0=0.001 Length=0.001 units=km
New Line.5348176:P5348176-1 phases=1 Bus1=14965806.2 Bus2=14965807.2 switch=y r1=0.001 x1=0.001 r0=0.001 x0=0.001 Length=0.001 units=km
New Line.5386569:P5386569-1 phases=1 Bus1=14967699.1 Bus2=14967700.1 switch=y r1=0.001 x1=0.001 r0=0.001 x0=0.001 Length=0.001 units=km
New Line.5425971:P5425971-1 phases=1 Bus1=14974705.3 Bus2=14974704.3 switch=y r1=0.001 x1=0.001 r0=0.001 x0=0.001 Length=0.001 units=km
New Line.5386473:P5386473-1 phases=1 Bus1=14947782.1 Bus2=14947781.1 switch=y r1=0.001 x1=0.001 r0=0.001 x0=0.001 Length=0.001 units=km
New Line.5386497:P5386497-1 phases=1 Bus1=14947853.1 Bus2=14947854.1 switch=y r1=0.001 x1=0.001 r0=0.001 x0=0.001 Length=0.001 units=km
New Line.5348176:P5348176-2 phases=1 Bus1=14965807.2 Bus2=14965815.2 switch=y r1=0.001 x1=0.001 r0=0.001 x0=0.001 Length=0.001 units=km
New Line.5402702:P5402702-1 phases=1 Bus1=14966382.1 Bus2=14966383.1 switch=y r1=0.001 x1=0.001 r0=0.001 x0=0.001 Length=0.001 units=km
New Line.5348445:P5348445-1 phases=1 Bus1=14967483.1 Bus2=14967484.1 switch=y r1=0.001 x1=0.001 r0=0.001 x0=0.001 Length=0.001 units=km
New Line.5386569:P5386569-2 phases=1 Bus1=14967700.1 Bus2=14967708.1 switch=y r1=0.001 x1=0.001 r0=0.001 x0=0.001 Length=0.001 units=km
New Line.5402752:P5402752-1 phases=1 Bus1=14933812.2 Bus2=14933813.2 switch=y r1=0.001 x1=0.001 r0=0.001 x0=0.001 Length=0.001 units=km
New Line.5386497:P5386497-2 phases=1 Bus1=14947854.1 Bus2=14947862.1 switch=y r1=0.001 x1=0.001 r0=0.001 x0=0.001 Length=0.001 units=km
New Line.5348445:P5348445-2 phases=1 Bus1=14967484.1 Bus2=14967492.1 switch=y r1=0.001 x1=0.001 r0=0.001 x0=0.001 Length=0.001 units=km
New Line.5402752:P5402752-2 phases=1 Bus1=14933813.2 Bus2=14933821.2 switch=y r1=0.001 x1=0.001 r0=0.001 x0=0.001 Length=0.001 units=km
New Line.5353087:P5353087-1 phases=1 Bus1=14947565.1 Bus2=14947566.1 switch=y r1=0.001 x1=0.001 r0=0.001 x0=0.001 Length=0.001 units=km
New Line.5386474:P5386474-1 phases=1 Bus1=14948285.1 Bus2=14948286.1 switch=y r1=0.001 x1=0.001 r0=0.001 x0=0.001 Length=0.001 units=km
New Line.5402703:P5402703-2 phases=1 Bus1=14966463.1 Bus2=14966455.1 switch=y r1=0.001 x1=0.001 r0=0.001 x0=0.001 Length=0.001 units=km
New Line.5199263:B5199263-2 phases=1 Bus1=12355903.2 Bus2=12355911.2 switch=y r1=0.001 x1=0.001 r0=0.001 x0=0.001 Length=0.001 units=km
New Line.5199261:B5199261-2 phases=1 Bus1=12356055.3 Bus2=12356047.3 switch=y r1=0.001 x1=0.001 r0=0.001 x0=0.001 Length=0.001 units=km
New Line.5199265:B5199265-2 phases=1 Bus1=12356199.3 Bus2=12356191.3 switch=y r1=0.001 x1=0.001 r0=0.001 x0=0.001 Length=0.001 units=km
New Line.5411228:P5411228-2 phases=1 Bus1=12346245.1 Bus2=12346237.1 switch=y r1=0.001 x1=0.001 r0=0.001 x0=0.001 Length=0.001 units=km
New Line.5199261:B5199261-1 phases=1 Bus1=12356047.3 Bus2=12356046.3 switch=y r1=0.001 x1=0.001 r0=0.001 x0=0.001 Length=0.001 units=km
New Line.5471784:B5471784-1 phases=3 Bus1=12364665.1.2.3 Bus2=12364666.1.2.3 switch=y r1=0.001 x1=0.001 r0=0.001 x0=0.001 Length=0.001 units=km
New Line.5497112:P5497112-2 phases=1 Bus1=12365745.2 Bus2=12365737.2 switch=y r1=0.001 x1=0.001 r0=0.001 x0=0.001 Length=0.001 units=km
New Line.5386459:P5386459-1 phases=1 Bus1=12346308.3 Bus2=12346309.3 switch=y r1=0.001 x1=0.001 r0=0.001 x0=0.001 Length=0.001 units=km
New Line.5199264:B5199264-1 phases=1 Bus1=12355974.2 Bus2=12355975.2 switch=y r1=0.001 x1=0.001 r0=0.001 x0=0.001 Length=0.001 units=km
New Line.5497112:P5497112-1 phases=1 Bus1=12365737.2 Bus2=12365736.2 switch=y r1=0.001 x1=0.001 r0=0.001 x0=0.001 Length=0.001 units=km
New Line.5565414:P5565414-2 phases=1 Bus1=88074540.1 Bus2=88074532.1 switch=y r1=0.001 x1=0.001 r0=0.001 x0=0.001 Length=0.001 units=km
New Line.5565415:P5565415-1 phases=1 Bus1=88074611.1 Bus2=88074612.1 switch=y r1=0.001 x1=0.001 r0=0.001 x0=0.001 Length=0.001 units=km
New Line.5386459:P5386459-2 phases=1 Bus1=12346309.3 Bus2=12346317.3 switch=y r1=0.001 x1=0.001 r0=0.001 x0=0.001 Length=0.001 units=km
New Line.5199262:B5199262-2 phases=1 Bus1=12356127.3 Bus2=12356119.3 switch=y r1=0.001 x1=0.001 r0=0.001 x0=0.001 Length=0.001 units=km
New Line.5565414:P5565414-1 phases=1 Bus1=88074532.1 Bus2=88074531.1 switch=y r1=0.001 x1=0.001 r0=0.001 x0=0.001 Length=0.001 units=km
New Line.5565415:P5565415-2 phases=1 Bus1=88074612.1 Bus2=88074620.1 switch=y r1=0.001 x1=0.001 r0=0.001 x0=0.001 Length=0.001 units=km
New Line.5186624:B5186624-1 phases=1 Bus1=12354938.3 Bus2=12354939.3 switch=y r1=0.001 x1=0.001 r0=0.001 x0=0.001 Length=0.001 units=km
New Line.5186611:B5186611-1 phases=1 Bus1=12355010.3 Bus2=12355011.3 switch=y r1=0.001 x1=0.001 r0=0.001 x0=0.001 Length=0.001 units=km
New Line.5386460:P5386460-2 phases=1 Bus1=12346389.3 Bus2=12346381.3 switch=y r1=0.001 x1=0.001 r0=0.001 x0=0.001 Length=0.001 units=km
New Line.5186611:B5186611-2 phases=1 Bus1=12355011.3 Bus2=12355019.3 switch=y r1=0.001 x1=0.001 r0=0.001 x0=0.001 Length=0.001 units=km
New Line.5331688:B5331688-1 phases=1 Bus1=12355708.3 Bus2=12355709.3 switch=y r1=0.001 x1=0.001 r0=0.001 x0=0.001 Length=0.001 units=km
New Line.5331687:B5331687-2 phases=1 Bus1=12355789.3 Bus2=12355781.3 switch=y r1=0.001 x1=0.001 r0=0.001 x0=0.001 Length=0.001 units=km
New Line.5402758:P5402758-2 phases=1 Bus1=14933627.2 Bus2=14933619.2 switch=y r1=0.001 x1=0.001 r0=0.001 x0=0.001 Length=0.001 units=km
New Line.5353087:P5353087-2 phases=1 Bus1=14947566.1 Bus2=14947574.1 switch=y r1=0.001 x1=0.001 r0=0.001 x0=0.001 Length=0.001 units=km
New Line.5386498:P5386498-1 phases=1 Bus1=14948213.1 Bus2=14948214.1 switch=y r1=0.001 x1=0.001 r0=0.001 x0=0.001 Length=0.001 units=km
New Line.5386474:P5386474-2 phases=1 Bus1=14948286.1 Bus2=14948294.1 switch=y r1=0.001 x1=0.001 r0=0.001 x0=0.001 Length=0.001 units=km
New Line.5348444:P5348444-1 phases=1 Bus1=14967555.1 Bus2=14967556.1 switch=y r1=0.001 x1=0.001 r0=0.001 x0=0.001 Length=0.001 units=km
New Line.5331687:B5331687-1 phases=1 Bus1=12355781.3 Bus2=12355780.3 switch=y r1=0.001 x1=0.001 r0=0.001 x0=0.001 Length=0.001 units=km
New Line.5402758:P5402758-1 phases=1 Bus1=14933619.2 Bus2=14933618.2 switch=y r1=0.001 x1=0.001 r0=0.001 x0=0.001 Length=0.001 units=km
New Line.5386498:P5386498-2 phases=1 Bus1=14948214.1 Bus2=14948222.1 switch=y r1=0.001 x1=0.001 r0=0.001 x0=0.001 Length=0.001 units=km
New Line.5348444:P5348444-2 phases=1 Bus1=14967556.1 Bus2=14967564.1 switch=y r1=0.001 x1=0.001 r0=0.001 x0=0.001 Length=0.001 units=km
New Line.5386564:P5386564-1 phases=1 Bus1=14948141.1 Bus2=14948142.1 switch=y r1=0.001 x1=0.001 r0=0.001 x0=0.001 Length=0.001 units=km
New Line.5385417:P5385417-2 phases=1 Bus1=14966103.1 Bus2=14966095.1 switch=y r1=0.001 x1=0.001 r0=0.001 x0=0.001 Length=0.001 units=km
New Line.5385416:P5385416-1 phases=1 Bus1=14966238.1 Bus2=14966239.1 switch=y r1=0.001 x1=0.001 r0=0.001 x0=0.001 Length=0.001 units=km
New Line.5588930:B5588930-2 phases=1 Bus1=12364335.2 Bus2=12364327.2 switch=y r1=0.001 x1=0.001 r0=0.001 x0=0.001 Length=0.001 units=km
New Line.PME2809-4$PME2809-1 phases=3 Bus1=12354241.1.2.3 Bus2=12354242.1.2.3 switch=y r1=0.001 x1=0.001 r0=0.001 x0=0.001 Length=0.001 units=km
New Line.PME2809-4$PME2809-3 phases=3 Bus1=12354241.1.2.3 Bus2=12354248.1.2.3 switch=y r1=0.001 x1=0.001 r0=0.001 x0=0.001 Length=0.001 units=km
New Line.12366678 phases=3 Bus1=12366681.1.2.3 Bus2=12366680.1.2.3 switch=y r1=0.001 x1=0.001 r0=0.001 x0=0.001 Length=0.001 units=km
New Line.88074870 phases=1 Bus1=88074873.1 Bus2=88074872.1 switch=y r1=0.001 x1=0.001 r0=0.001 x0=0.001 Length=0.001 units=km
New Line.184882716 phases=1 Bus1=184882719.1 Bus2=184882718.1 switch=y r1=0.001 x1=0.001 r0=0.001 x0=0.001 Length=0.001 units=km
New Line.88075311 phases=1 Bus1=88075314.1 Bus2=88075313.1 switch=y r1=0.001 x1=0.001 r0=0.001 x0=0.001 Length=0.001 units=km
New Line.183574904 phases=1 Bus1=183574906.2 Bus2=183574907.2 switch=y r1=0.001 x1=0.001 r0=0.001 x0=0.001 Length=0.001 units=km
New Line.14934290$14934306 phases=3 Bus1=14934294.1.2.3 Bus2=14934310.1.2.3 switch=y r1=0.001 x1=0.001 r0=0.001 x0=0.001 Length=0.001 units=km
New Line.182256189 phases=1 Bus1=182256191.1 Bus2=182256192.1 switch=y r1=0.001 x1=0.001 r0=0.001 x0=0.001 Length=0.001 units=km
New Line.184882782 phases=1 Bus1=184882785.2 Bus2=184882784.2 switch=y r1=0.001 x1=0.001 r0=0.001 x0=0.001 Length=0.001 units=km
New Line.197816617 phases=1 Bus1=197816619.2 Bus2=197816620.2 switch=y r1=0.001 x1=0.001 r0=0.001 x0=0.001 Length=0.001 units=km
New Line.14934306$14934298 phases=3 Bus1=14934310.1.2.3 Bus2=14934302.1.2.3 switch=y r1=0.001 x1=0.001 r0=0.001 x0=0.001 Length=0.001 units=km
New Line.222261664 phases=1 Bus1=222261667.1 Bus2=222261666.1 switch=y r1=0.001 x1=0.001 r0=0.001 x0=0.001 Length=0.001 units=km
New Line.187576069 phases=1 Bus1=187576072.2 Bus2=187576071.2 switch=y r1=0.001 x1=0.001 r0=0.001 x0=0.001 Length=0.001 units=km
New Line.188280348 phases=1 Bus1=188280350.2 Bus2=188280351.2 switch=y r1=0.001 x1=0.001 r0=0.001 x0=0.001 Length=0.001 units=km
New Line.14934388$14934396 phases=3 Bus1=14934392.1.2.3 Bus2=14934400.1.2.3 switch=y r1=0.001 x1=0.001 r0=0.001 x0=0.001 Length=0.001 units=km
New Line.182256165 phases=1 Bus1=182256168.1 Bus2=182256167.1 switch=y r1=0.001 x1=0.001 r0=0.001 x0=0.001 Length=0.001 units=km
New Line.197816629 phases=1 Bus1=197816632.2 Bus2=197816631.2 switch=y r1=0.001 x1=0.001 r0=0.001 x0=0.001 Length=0.001 units=km
New Line.243573991 phases=1 Bus1=243573993.3 Bus2=243573994.3 switch=y r1=0.001 x1=0.001 r0=0.001 x0=0.001 Length=0.001 units=km
New Line.188280360 phases=1 Bus1=188280363.2 Bus2=188280362.2 switch=y r1=0.001 x1=0.001 r0=0.001 x0=0.001 Length=0.001 units=km
New Line.197816731 phases=1 Bus1=197816733.2 Bus2=197816734.2 switch=y r1=0.001 x1=0.001 r0=0.001 x0=0.001 Length=0.001 units=km
New Line.98351079 phases=1 Bus1=98351081.2 Bus2=98351082.2 switch=y r1=0.001 x1=0.001 r0=0.001 x0=0.001 Length=0.001 units=km
New Line.188280394 phases=1 Bus1=188280396.2 Bus2=188280397.2 switch=y r1=0.001 x1=0.001 r0=0.001 x0=0.001 Length=0.001 units=km
New Line.98351104 phases=1 Bus1=98351107.2 Bus2=98351106.2 switch=y r1=0.001 x1=0.001 r0=0.001 x0=0.001 Length=0.001 units=km
New Line.197816743 phases=1 Bus1=197816746.2 Bus2=197816745.2 switch=y r1=0.001 x1=0.001 r0=0.001 x0=0.001 Length=0.001 units=km
New Line.98350979 phases=1 Bus1=98350981.2 Bus2=98350982.2 switch=y r1=0.001 x1=0.001 r0=0.001 x0=0.001 Length=0.001 units=km
New Line.185445364 phases=3 Bus1=185445366.1.2.3 Bus2=185445367.1.2.3 switch=y r1=0.001 x1=0.001 r0=0.001 x0=0.001 Length=0.001 units=km
New Line.218853952$218853961 phases=3 Bus1=218853932.1.2.3 Bus2=218853926.1.2.3 switch=y r1=0.001 x1=0.001 r0=0.001 x0=0.001 Length=0.001 units=km
New Line.218853961$GS1827-4 phases=3 Bus1=218853932.1.2.3 Bus2=218853938.1.2.3 switch=y r1=0.001 x1=0.001 r0=0.001 x0=0.001 Length=0.001 units=km
New Line.12366274 phases=3 Bus1=12366276.1.2.3 Bus2=12366277.1.2.3 switch=y r1=0.001 x1=0.001 r0=0.001 x0=0.001 Length=0.001 units=km
New Line.GS1827-1$218853952 phases=3 Bus1=218853926.1.2.3 Bus2=218853925.1.2.3 switch=y r1=0.001 x1=0.001 r0=0.001 x0=0.001 Length=0.001 units=km
New Line.190956095 phases=1 Bus1=190956097.1 Bus2=190956098.1 switch=y r1=0.001 x1=0.001 r0=0.001 x0=0.001 Length=0.001 units=km
New Line.12345767$12345759 phases=3 Bus1=12345763.1.2.3 Bus2=12345771.1.2.3 switch=y r1=0.001 x1=0.001 r0=0.001 x0=0.001 Length=0.001 units=km
New Line.12371268 phases=3 Bus1=12371270.1.2.3 Bus2=12371271.1.2.3 switch=y r1=0.001 x1=0.001 r0=0.001 x0=0.001 Length=0.001 units=km
New Line.233229011$233229020 phases=3 Bus1=233228991.1.2.3 Bus2=233228985.1.2.3 switch=y r1=0.001 x1=0.001 r0=0.001 x0=0.001 Length=0.001 units=km
New Line.233229020$GS1055-4 phases=3 Bus1=233228991.1.2.3 Bus2=233228997.1.2.3 switch=y r1=0.001 x1=0.001 r0=0.001 x0=0.001 Length=0.001 units=km
New Line.88074922 phases=1 Bus1=88074924.1 Bus2=88074925.1 switch=y r1=0.001 x1=0.001 r0=0.001 x0=0.001 Length=0.001 units=km
New Line.88075261 phases=1 Bus1=88075263.1 Bus2=88075264.1 switch=y r1=0.001 x1=0.001 r0=0.001 x0=0.001 Length=0.001 units=km
New Line.183873020 phases=1 Bus1=183873023.3 Bus2=183873022.3 switch=y r1=0.001 x1=0.001 r0=0.001 x0=0.001 Length=0.001 units=km
New Line.183873032 phases=1 Bus1=183873035.2 Bus2=183873034.2 switch=y r1=0.001 x1=0.001 r0=0.001 x0=0.001 Length=0.001 units=km
New Line.GS1055-1$233229011 phases=3 Bus1=233228985.1.2.3 Bus2=233228984.1.2.3 switch=y r1=0.001 x1=0.001 r0=0.001 x0=0.001 Length=0.001 units=km
New Line.12345751$12345767 phases=3 Bus1=12345771.1.2.3 Bus2=12345755.1.2.3 switch=y r1=0.001 x1=0.001 r0=0.001 x0=0.001 Length=0.001 units=km
New Line.12347088$12347096 phases=3 Bus1=12347067.1.2.3 Bus2=12347061.1.2.3 switch=y r1=0.001 x1=0.001 r0=0.001 x0=0.001 Length=0.001 units=km
New Line.185445376 phases=3 Bus1=185445379.1.2.3 Bus2=185445378.1.2.3 switch=y r1=0.001 x1=0.001 r0=0.001 x0=0.001 Length=0.001 units=km
New Line.206240859 phases=3 Bus1=206240861.1.2.3 Bus2=206240862.1.2.3 switch=y r1=0.001 x1=0.001 r0=0.001 x0=0.001 Length=0.001 units=km
New Line.12347072$12347088 phases=3 Bus1=12347061.1.2.3 Bus2=12347055.1.2.3 switch=y r1=0.001 x1=0.001 r0=0.001 x0=0.001 Length=0.001 units=km
New Line.12347080$12347072 phases=3 Bus1=12347055.1.2.3 Bus2=12347054.1.2.3 switch=y r1=0.001 x1=0.001 r0=0.001 x0=0.001 Length=0.001 units=km
New Line.12363977$12363969 phases=3 Bus1=12363973.1.2.3 Bus2=12363981.1.2.3 switch=y r1=0.001 x1=0.001 r0=0.001 x0=0.001 Length=0.001 units=km
New Line.12366252 phases=3 Bus1=12366254.1.2.3 Bus2=12366255.1.2.3 switch=y r1=0.001 x1=0.001 r0=0.001 x0=0.001 Length=0.001 units=km
New Line.215525424 phases=1 Bus1=215525426.3 Bus2=215525427.3 switch=y r1=0.001 x1=0.001 r0=0.001 x0=0.001 Length=0.001 units=km
New Line.98351004 phases=1 Bus1=98351007.2 Bus2=98351006.2 switch=y r1=0.001 x1=0.001 r0=0.001 x0=0.001 Length=0.001 units=km
New Line.98350952 phases=1 Bus1=98350954.2 Bus2=98350955.2 switch=y r1=0.001 x1=0.001 r0=0.001 x0=0.001 Length=0.001 units=km
New Line.12363961$12363977 phases=3 Bus1=12363981.1.2.3 Bus2=12363965.1.2.3 switch=y r1=0.001 x1=0.001 r0=0.001 x0=0.001 Length=0.001 units=km
New Line.12371258 phases=3 Bus1=12371260.1.2.3 Bus2=12371261.1.2.3 switch=y r1=0.001 x1=0.001 r0=0.001 x0=0.001 Length=0.001 units=km
New Line.182691632 phases=1 Bus1=182691634.2 Bus2=182691635.2 switch=y r1=0.001 x1=0.001 r0=0.001 x0=0.001 Length=0.001 units=km
...

! Loads
New Load.5348445 Bus1=-99999914967484.1.0 phases=1 kV=0.069282 kW=0 kvar=0 model=1
New Load.5386497 Bus1=-99999914947854.1.0 phases=1 kV=0.069282 kW=0 kvar=0 model=1
New Load.5402702 Bus1=-99999914966383.1.0 phases=1 kV=0.069282 kW=0 kvar=0 model=1
New Load.5578511_0 Bus1=-999999222434042.1.0 phases=1 kV=0.159926 kW=0 kvar=0 model=1
New Load.5578511_1 Bus1=-999999222434042.2.0 phases=1 kV=0.159926 kW=0 kvar=0 model=1
New Load.5578511_2 Bus1=-999999222434042.3.0 phases=1 kV=0.159926 kW=0 kvar=0 model=1
New Load.5431550 Bus1=-99999912364618.1.0 phases=1 kV=0.069282 kW=0 kvar=0 model=1
New Load.5347617 Bus1=-99999912346503.2.0 phases=1 kV=0.069282 kW=0 kvar=0 model=1
New Load.5345271 Bus1=-99999912345949.3.0 phases=1 kV=0.069282 kW=0 kvar=0 model=1
New Load.5425968 Bus1=-99999914933475.2.0 phases=1 kV=0.069282 kW=0 kvar=0 model=1
New Load.5425969 Bus1=-99999914933547.2.0 phases=1 kV=0.069282 kW=0 kvar=0 model=1
New Load.5315435 Bus1=-99999912347729.1.0 phases=1 kV=0.069282 kW=0 kvar=0 model=1
New Load.5315439 Bus1=-99999912348189.1.0 phases=1 kV=0.069282 kW=0 kvar=0 model=1
New Load.5348441 Bus1=-99999912358065.2.0 phases=1 kV=0.069282 kW=0 kvar=0 model=1
New Load.5385421 Bus1=-99999912362445.2.0 phases=1 kV=0.069282 kW=0 kvar=0 model=1
New Load.5315445 Bus1=-99999912348045.1.0 phases=1 kV=0.069282 kW=0 kvar=0 model=1
New Load.5315427 Bus1=-99999912348599.3.0 phases=1 kV=0.069282 kW=0 kvar=0 model=1
New Load.5348446 Bus1=-99999912348934.1.0 phases=1 kV=0.069282 kW=0 kvar=0 model=1
New Load.5344997 Bus1=-99999912363021.1.0 phases=1 kV=0.069282 kW=0 kvar=0 model=1
New Load.5385410 Bus1=-999999153081838.2.0 phases=1 kV=0.069282 kW=0 kvar=0 model=1
New Load.5345275 Bus1=-99999912346572.2.0 phases=1 kV=0.069282 kW=0 kvar=0 model=1
New Load.5402653 Bus1=-99999914967988.1.0 phases=1 kV=0.069282 kW=0 kvar=0 model=1
New Load.5385417 Bus1=-99999914966095.1.0 phases=1 kV=0.069282 kW=0 kvar=0 model=1
New Load.5385416 Bus1=-99999914966239.1.0 phases=1 kV=0.069282 kW=0 kvar=0 model=1
New Load.5411228 Bus1=-99999912346237.1.0 phases=1 kV=0.069282 kW=0 kvar=0 model=1
New Load.5471784 Bus1=-99999912364666.1.0 phases=1 kV=0.069282 kW=0 kvar=0 model=1
New Load.5497112 Bus1=-99999912365737.2.0 phases=1 kV=0.069282 kW=0 kvar=0 model=1
New Load.5386460 Bus1=-99999912346381.3.0 phases=1 kV=0.069282 kW=0 kvar=0 model=1
New Load.5331687 Bus1=-99999912355781.3.0 phases=1 kV=0.069282 kW=0 kvar=0 model=1
New Load.5331688 Bus1=-99999912355709.3.0 phases=1 kV=0.069282 kW=0 kvar=0 model=1
New Load.5315440 Bus1=-99999912348261.1.0 phases=1 kV=0.069282 kW=0 kvar=0 model=1
New Load.5565417 Bus1=-99999988074353.1.0 phases=1 kV=0.069282 kW=0 kvar=0 model=1
New Load.5411421 Bus1=-99999912363470.2.0 phases=1 kV=0.069282 kW=0 kvar=0 model=1
New Load.5315441 Bus1=-99999912348405.1.0 phases=1 kV=0.069282 kW=0 kvar=0 model=1
New Load.5199261 Bus1=-99999912356047.3.0 phases=1 kV=0.138564 kW=0 kvar=0 model=1
New Load.5199265 Bus1=-99999912356191.3.0 phases=1 kV=0.069282 kW=0 kvar=0 model=1
New Load.5416863_0 Bus1=-99999912365952.1.0 phases=1 kV=0.069282 kW=0 kvar=0 model=1
New Load.5416863_1 Bus1=-99999912365952.2.0 phases=1 kV=0.069282 kW=0 kvar=0 model=1
New Load.5416863_2 Bus1=-99999912365952.3.0 phases=1 kV=0.069282 kW=0 kvar=0 model=1
New Load.5416864_0 Bus1=-99999912345708.1.0 phases=1 kV=0.069282 kW=0 kvar=0 model=1
New Load.5416864_1 Bus1=-99999912345708.2.0 phases=1 kV=0.069282 kW=0 kvar=0 model=1
New Load.5416864_2 Bus1=-99999912345708.3.0 phases=1 kV=0.069282 kW=0 kvar=0 model=1
New Load.5565414 Bus1=-99999988074532.1.0 phases=1 kV=0.069282 kW=0 kvar=0 model=1
New Load.5386459 Bus1=-99999912346309.3.0 phases=1 kV=0.069282 kW=0 kvar=0 model=1
...